Control File for a MODFLOW-only simulation, Sagehen Creek Watershed
####
model_mode
1
4
MODFLOW
####
start_time
6
1
2014
10
1
0
0
0
####
end_time
6
1
2016
09
30
0
0
0
####
modflow_time_zero
6
1
2014
10
1
0
0
0
####
modflow_name
1
4
.\Agwater1_high.nam
####
print_debug
1
1
-1
