# MODFLOW-NWT
1.0E-4 1. 500 1.0e-8  2  1 1 SPECIFIED 0.96 0.1 0.000  0.10 0  20 1.5 0.7  linmeth=1 (GMRES); =2 (xmd)  
1 1 5 7 1 0.0 0 5.0E-3 1.0e-3  50       XMD