GSFLOW Control File for the Sagehen Creek Watershed using pre-processed climate data
####
model_mode
1
4
MODFLOW
####
start_time
6
1
1980
10
1
0
0
0
####
modflow_time_zero
6
1
1980
10
1
0
0
0
####
end_time
6
1
1984
1
30
0
0
0
####
modflow_name
1
4
../input/modflow/sagehen_modflow.nam
####
init_vars_from_file
1
1
0
####
save_vars_to_file
1
1
0
####
print_debug
1
1
-1
