# MODFLOW-NWT Input File Problem 1a
1.0e-4 1.0e-4 500 1.0e-5  2  1 1 SPECIFIED 0.99 0.0001 0.000  0.00 0  20 2.0 0.6  linmeth=1 (GMRES); =2 (xmd)  
2 0 8 2 0 0.0 1 1.0E-3 1.0e-4 50    XMD