# MODFLOW2005 OC Input File
# Test Problem 3 for UPW Package and NWT Solver
HEAD PRINT FORMAT   12
HEAD SAVE UNIT 30
HEAD SAVE FORMAT (15F10.2) LABEL
PERIOD   1 STEP   1    
	PRINT HEAD
	SAVE HEAD