Control File for a MODFLOW-only simulation, Sagehen Creek Watershed
####
model_mode
1
4
MODFLOW
####
modflow_time_zero
6
1
1980
10
1
0
0
0
####
start_time
6
1
1980
10
1
0
0
0
####
end_time
6
1
1996
09
30
0
0
0
####
modflow_name
1
4
../input/modflow/sagehen.mf.nam
####
print_debug
1
1
0
