# NWT Input File
# Test Problem 3 for MODFLOW-NWT
#HEADTOL  FLUXTOL MAXITEROUT THICKFACT LINMETH IPRNWT IBOTAV OPTIONS DBDREDUCE DBDINCREASE DBDGAMMA MOMFACT BACKFLAG MAXBACKITER BACKTOL BACKREDUCE
0.000001  0.001 200 1.0e-5  2  1 1 SPECIFIED CONTINUE 0.99 0.00001 0.0  0.10 0  30 1.05 0.9  linmeth=1 (GMRES); =2 (xmd)  
2 0 1 15 1 0.0 1 5.0E-3 1.0e-4  50   XMD
