Control File for a MODFLOW-only simulation, Sagehen Creek Watershed
####
model_mode
1
4
MODFLOW
####
start_time
6
1
1990
10
1
0
0
0
####
end_time
6
1
2000
10
31
0
0
0
####
modflow_time_zero
6
1
1990
10
1
0
0
0
####
modflow_name
1
4
.\sagehen_MFonly.nam
####
print_debug
1
1
0
