# MODFLOW-NWT Input File Problem 1b
1.0e-4 5.0e-4 500 0.00001  2  1 1 SPECIFIED 0.90 0.0001 0.000  0.10 0  20 2.0 0.6  linmeth=1 (GMRES); =2 (xmd)  
2 0 8 2 0 0.0 1 1.0E-3 1.0e-4 50    XMD
